Autonomous DrivingSimulation PlatformsScenario Taxonomy, Counts & Differentiation BasisPlatforms Covered1. CARLA + ScenarioRunner2. nuPlan (Motional)3. Waymax (Waymo)4. LGSVL Simulator + Apollo Dreamland5. Eclipse SUMO6. Microsoft AirSim7. MetaDrive8. Highway-Env (Farama Foundation)9. PTV VISSIM10. IPG CarMakerDocument compiled for platform design reference | 20251. CARLA + ScenarioRunnerCARLA (Car Learning to Act) is the most widely used open-source autonomous driving simulator for research. Built on Unreal Engine 4, it is developed by the Computer Vision Center (CVC) at the Universitat Autonoma de Barcelona. ScenarioRunner is the companion module for defining, loading, and executing traffic scenarios within CARLA.1.1  Platform OverviewMaintainerComputer Vision Center (CVC), UAB — open-source communityEngineUnreal Engine 4 (photorealistic rendering)LicenseMIT (CARLA) / MIT (ScenarioRunner)Primary UseFull-stack AV research: perception, planning, control, end-to-endScenario TypeSynthetic, rule-based — hand-crafted Python classes or OpenSCENARIO XMLScenario Count~30 named types in ScenarioRunner; 17 standardized in the CARLA Leaderboard (from NHTSA pre-crash typology); infinite parameterized variants possibleRenderingFull Unreal Engine — high-fidelity photorealistic visuals, day/night, weatherSensor SuiteRGB camera, depth, semantic segmentation, instance segmentation, LiDAR, Radar, GNSS, IMU, collision/lane-invasion detectorsStandards SupportOpenSCENARIO 1.x and 2.0, OpenDRIVE maps, ASAM standardsKey IntegrationsROS/ROS2 bridge, SUMO co-simulation, Scenic probabilistic DSL, Apollo/AutowareAvailable MapsTown01–Town15 (procedural + manual), custom maps via RoadRunner + OpenDRIVE import1.2  Scenario Design PhilosophyCARLA scenarios are explicitly scripted behavioral programs. Each scenario is a Python class (inheriting from BasicScenario) or an OpenSCENARIO XML file. A scenario defines: (1) initial world state — vehicle positions, pedestrian positions, weather; (2) behavioral tree of all non-ego actors; (3) success/failure criteria. Scenarios are run by ScenarioRunner against a live CARLA server.The 17 CARLA Leaderboard scenarios were derived directly from the NHTSA Pre-Crash Typology — a classification of real crash types from U.S. crash databases. This means every leaderboard scenario maps to a documented real-world crash pattern.1.3  Complete Scenario List#Scenario NameDescription & Differentiating Factor01Control loss (no prior action)Ego loses control due to bad road conditions. Differentiator: no precipitating event — control loss is spontaneous, testing recovery behavior from an unexpected slide.02Unprotected left turnEgo turns left at intersection while oncoming traffic approaches. Differentiator: yielding obligation is on ego — tests gap acceptance under oncoming flow. Occurs at both signalized and unsignalized junctions.03Right turn with crossing trafficEgo turns right while a vehicle crosses from the left. Differentiator: conflict comes from crossing direction (lateral), not from oncoming flow.04Crossing negotiation (unsignalized)Ego and another vehicle reach an unsignalized intersection simultaneously. Differentiator: no traffic control — tests negotiation and right-of-way inference between two vehicles.05Red light runnerEgo proceeds on green but crossing vehicle runs red. Differentiator: the conflicting agent is in violation — ego has right of way but must still avoid the collision.06Crossing with oncoming bicyclesEgo turns at intersection while bicycles cross. Differentiator: conflicting actor is a vulnerable road user (bicycle), not a motor vehicle — smaller profile, different speed/behavior.07Highway merge from on-rampEgo enters highway from on-ramp into moving traffic. Differentiator: ego is the merging agent, must find a gap in high-speed traffic.08Highway cut-in from on-rampAnother vehicle merges into ego's lane from on-ramp. Differentiator: ego is on the main road and must react to an agent merging into its path — opposite role from Scenario 07.09Static cut-inVehicle merges into ego's lane from a lane of stopped traffic. Differentiator: cut-in comes from a static traffic queue, not from an on-ramp.10Slow moving hazard (same direction)Slow vehicle partially blocks lane, ego must maneuver next to same-direction traffic. Differentiator: traffic adjacent to maneuver moves in the same direction as ego.10aSlow moving hazard (opposite direction)Slow hazard at lane edge, adjacent traffic moves opposite to ego. Differentiator: oncoming traffic during maneuver increases risk.11Yield to emergency vehicleEmergency vehicle approaches from behind. Ego must clear a path. Differentiator: actor is an emergency vehicle with right-of-way override — legal and safety behavior tested.12Obstacle in lane (same-direction lane change)Blocked lane requires change into same-direction traffic. Differentiator: ego lane change is into traffic flowing same way — lower speed differential.12aObstacle in lane (opposite-direction lane change)Blocked lane requires change into oncoming traffic lane. Differentiator: lane change is into oncoming flow — much higher risk scenario.13Door obstacleParked vehicle opens door into ego's lane. Differentiator: obstacle appears suddenly at very short range from a stationary vehicle — reaction time is extremely limited.14Vehicle invading lane on bendOncoming vehicle crosses into ego's lane due to its own obstacle. Differentiator: conflict occurs on a curved road where visibility is reduced.15Emergency brake due to leading vehicleLeading vehicle decelerates suddenly. Differentiator: longitudinal-only challenge — pure braking or avoidance required, no lateral threat.16Obstacle avoidance (no prior action)Unexpected entity (debris, animal, fallen object) appears in road. Differentiator: no warning, no other vehicles — pure perception-and-react test.17Follow leading vehicle (stops ahead)Ego follows a leader that eventually stops. Differentiator: baseline longitudinal following behavior — simplest scenario, used as foundation for more complex variants.18Follow leading vehicle (hidden obstacle)Ego follows a leader that stops due to a hidden obstacle further ahead. Differentiator: ego cannot see reason for stop; must infer hazard from leader behavior alone.19Stationary object crossingStationary cyclist/pedestrian in road blocks path. Differentiator: blocking agent is static — ego must stop and wait rather than avoid a moving threat.20Dynamic object crossingCyclist/pedestrian dynamically crosses ego's path. Differentiator: crossing agent is moving — timing and trajectory prediction critical. Agent clears road after crossing.21Signalized intersection right turnEgo turns right at a signalized intersection while another vehicle crosses straight from a lateral direction. Differentiator: both ego and conflicting vehicle have green light on different approaches.22Lane change with obstacle aheadAdversary in adjacent lane accelerates, then cuts left in front of a stationary obstacle. Differentiator: three-actor coordination — ego, active lane-changer, and static obstacle all interact.1.4  Dimensions of DifferentiationScenarios within CARLA differ along these axes. Understanding these dimensions is critical for designing your own scenario taxonomy:DimensionHow Scenarios DifferRoad geometryIntersection vs highway vs residential vs rural bend vs parking area. Road type determines which maneuvers are relevant and which conflicts can arise.Conflicting actor typeMotor vehicle vs cyclist vs pedestrian vs emergency vehicle. Actor type changes size, speed, trajectory predictability, and legal right-of-way rules.Actor behaviorStationary vs moving; compliant vs non-compliant (e.g., red-light running). Non-compliant actors test robustness to rule violations.Ego maneuverStraight, left turn, right turn, lane change, merge, parking. Each maneuver creates a different set of potential conflicts.Traffic controlSignalized vs unsignalized; green/yellow/red; stop sign vs yield vs bare intersection. Control type changes right-of-way and negotiation requirements.Conflict directionOncoming (head-on) vs crossing (lateral) vs rear-end vs merging. The geometric relationship between ego and the conflicting agent determines the type of response needed.EnvironmentWeather (clear/rain/fog/wet), time of day (noon/sunset/night/dawn), road surface condition. Same behavioral scenario under different conditions tests perception and decision-making robustness.Triggering conditionEvent-based (actor appears at distance X) vs time-based vs velocity-based. Controls when the critical moment occurs in the scenario.Obstacle stateStatic obstacle (construction site, parked car) vs dynamic (moving vehicle, pedestrian). Dynamic obstacles require trajectory prediction; static ones require detection and avoidance planning.The key insight for building a new platform: each new scenario is created by changing one or more of these dimensions while holding others constant. For example, Scenarios 07 and 08 both involve a highway on-ramp but differ in ego role (merging vs. receiving). Scenarios 12 and 12a both involve an obstacle-forced lane change but differ in conflict direction (same-direction vs. oncoming traffic).2. nuPlan (Motional)nuPlan is the world's first closed-loop ML-based planning benchmark for autonomous vehicles, developed by Motional. Unlike synthetic simulators, nuPlan's scenarios are mined from real-world driving data collected across four cities. It is designed specifically for benchmarking motion planning algorithms, not perception or full-stack systems.2.1  Platform OverviewMaintainerMotional (joint venture: Aptiv + Hyundai)LicenseCC BY-NC-SA 4.0 (non-commercial research)Primary UseML-based motion planning evaluation; open-loop and closed-loop benchmarkingScenario TypeReal-world data-driven — scenarios mined and auto-labeled from logged driving dataScenario Count73 unique scenario types; 15,910 log files; 1,282 hours total; nuPlan mini: 67 types in 7hCitiesLas Vegas (NV), Boston (MA), Pittsburgh (PA), SingaporeData Volume1,282 hours in full dataset; 128 hours with raw sensor dataScenario OriginAuto-labeled using vehicle speed, state transitions, and traffic light status from logsSimulation ModeOpen-loop (ego follows ground truth) and closed-loop (ego follows planner; reactive IDM agents)Key MetricsADE, FDE, collision rate, comfort metrics, traffic compliance, route completionFrameworkPython-based devkit with Hydra config; nuBoard for visualization; Pytorch Lightning for training2.2  How Scenarios Are CreatednuPlan does not hand-craft scenarios. Instead, a scenario taxonomy is defined with rules, and mining algorithms scan all 15,910 logs to find instances matching each rule. Rules are based on low-level attributes:Vehicle speed thresholds: e.g., high jerk = jerk > X m/s³ for > Y secondsState transitions: e.g., stopped-to-moving, moving-to-stopped, lane-change indicator on then offTraffic light status: encoded into lane connectors on the semantic mapMap context: presence of intersection polygon, PUDO zone, construction area, speed bump in map layerAgent interactions: number of agents within radius, presence of pedestrians, relative velocitiesThis means every scenario instance is a real, human-driven event extracted from logs — not a simulation. This makes coverage realistic but makes it impossible to guarantee coverage of specific rare events without collecting more data.2.3  Selected Scenario Types (of 73 total)#Scenario NameDescription & Differentiating Factor01Lane changeEgo changes lanes on a multi-lane road. Differentiated by: presence/absence of adjacent traffic, gap size, speed differential, triggered by lane blockage vs. voluntary.02Unprotected left turnEgo turns left without a dedicated green arrow. Differentiated by: oncoming traffic density, gap size, intersection geometry.03TailgatingEgo follows a vehicle at a dangerously short headway. Differentiated from normal following by abnormally small time-to-collision values.04High-velocity overtakeEgo overtakes another vehicle at high speed. Differentiated by speed differential and lateral clearance.05Double-parked carA parked vehicle blocks part of ego's lane. Differentiated by available gap in adjacent lane and speed of adjacent traffic.06Jaywalking pedestrianPedestrian crosses outside of designated crossing. Differentiated by trajectory angle, prediction difficulty, and ego speed at encounter.07Stop-controlled intersectionEgo must stop and yield at a stop sign. Differentiated by cross-traffic density and visibility.08Traffic light intersectionEgo navigates a signalized intersection. Differentiated by phase state (green/yellow/red) and crossing traffic behavior.09Pickup/dropoff zone (PUDO)Ego handles a vehicle stopped in a PUDO zone. Differentiated by available space for passing and duration of blockage.10Construction zoneRoad narrowing or detour due to construction. Differentiated by taper length, presence of workers, and speed limit change.11Abrupt brakingEgo or a lead vehicle brakes hard. Differentiated by headway at event onset and ego's following distance.12Speed bumpEgo traverses a speed bump. Differentiated by approach speed and bump height/profile.13High-jerk maneuverEgo executes a sudden lateral or longitudinal move. Differentiated from normal driving by jerk metric exceeding threshold.14On intersectionEgo is within intersection boundaries. A broad label capturing all intersection-crossing events regardless of type.15YieldingEgo yields to another road user. Differentiated by who/what is being yielded to: pedestrian, cyclist, cross-traffic.16Vehicle followingEgo follows a leading vehicle at normal headway. The baseline scenario; differentiated from tailgating by headway value.17Lane mergingTwo lanes merge into one. Differentiated by which vehicle has right of way and relative speeds.18Crossing on greenEgo proceeds through a green light. Differentiated by presence/absence of vehicles entering against the signal.19Mixed speed profileEgo experiences varied stop-and-go speeds within a scenario. Differentiated by frequency of speed changes.20Roundabout navigationEgo enters, traverses, and exits a roundabout. Differentiated by roundabout size and density of circulating traffic.2.4  Dimensions of DifferentiationDimensionHow Scenarios DifferEgo behavior typeWhat the ego vehicle is doing: following, yielding, turning, merging, stopping. Scenarios are classified primarily by ego action.Agent interaction typeWhat other agents are doing: parked (double-park), crossing (jaywalking), stopping (emergency stop), following closely (tailgating).Map contextWhether ego is in an intersection, PUDO zone, construction area, or open road at the time of the event.Traffic control stateTraffic light phase, stop sign presence. Captures compliance situations and signal-related decisions.Speed dynamicsSpeed profile characteristics: abrupt braking (high decel), high-velocity overtake (high relative speed), speed bump (low speed over obstacle).CityLas Vegas, Boston, Pittsburgh, Singapore have different traffic patterns, road layouts, and agent behavior norms. Same scenario type in different cities is effectively a different distribution.Jerk / comfort metricsHigh-jerk maneuvers form their own scenario class, capturing scenarios where smooth driving is violated regardless of conflict type.3. Waymax (Waymo)Waymax is a lightweight, hardware-accelerated, data-driven simulator developed by Waymo for multi-agent autonomous driving research. It is written entirely in JAX, enabling GPU/TPU-based simulation at scale. Unlike CARLA or nuPlan, Waymax has no fixed scenario taxonomy — its diversity comes from the sheer scale of the Waymo Open Motion Dataset (WOMD).3.1  Platform OverviewMaintainerWaymo ResearchLicenseWaymax License Agreement (non-commercial use)FrameworkJAX — full GPU/TPU acceleration; JIT compilation; vectorized parallel environmentsPrimary UseBehavior research: planning, prediction, sim agents, RL at scaleScenario TypeData-driven — real-world driving logs from WOMD; no fixed taxonomyScenario Count100,000+ trajectory snippets (WOMD training set); 7.64M unique object instances; 250h+ of dataScenario Duration9 seconds per snippet (recorded at 10 Hz = 91 frames)CitiesMultiple dense urban environments (Waymo's operational cities)Objects per ScenarioUp to 128 per scene (vehicles, pedestrians, cyclists)Agent ModelsLog playback (replay logs exactly) or IDM route-following (reactive)MetricsLog divergence, collision, offroad, wrong-way, kinematic infeasibility3.2  How Scenarios Are CreatedWaymax does not create scenarios manually or via mining rules. Scenarios are the raw driving logs from the Waymo Open Motion Dataset. Each scenario is initialized with:Static information: road graph (lanes, stop signs, crosswalks, speed limits) from the real-world HD mapDynamic initialization: first 1 second of logged trajectory for all objects in sceneGround truth logs: remaining 8 seconds of all object trajectories, used for log playback or IDM model initializationDiversity is entirely a function of where and when Waymo's sensor vehicles drove. No scenario is deliberately crafted. This is both a strength (naturalistic, uncurated realism) and a limitation (no guarantee of specific edge case coverage).3.3  Scenario Differentiation DimensionsSince Waymax has no named scenario types, differentiation must be described in terms of the properties that vary across the 100,000+ snippets:DimensionHow Scenarios DifferRoad graph topologyEach scenario has a unique real-world road graph. May include multi-way intersections, highway merges, roundabouts, urban grids, or suburban streets.Object populationAgent count (up to 128), type mix (vehicles/pedestrians/cyclists), and spatial distribution vary per snippet.Interaction densitySome snippets are sparse (highway, few agents); others are extremely dense (urban intersection, 30+ interacting agents). No explicit labeling.Agent behavior (logged)Each snippet captures real human driving behaviors including aggressive lane changes, hard braking, yielding, and non-compliant maneuvers.Simulation modeLog playback reproduces original behavior exactly. IDM mode makes agents reactive — they adjust speed based on ego's actions. Mode choice changes how the scenario unfolds.Controlled agent identityAny subset of agents can be designated as controlled (ego or multi-agent). The same snippet produces different research problems depending on which agent is controlled.Important note for platform design: Waymax's scenario granularity is the individual 9-second snippet, not a named type. Researchers typically filter snippets by custom criteria (e.g., 'contains a lane change event', 'involves a pedestrian') to construct task-specific training sets.4. LGSVL Simulator + Apollo DreamlandLGSVL Simulator is a high-fidelity simulator developed by LG Electronics built on Unity. It is designed specifically as an end-to-end testbed for autonomous driving stacks, with first-class integration with Baidu Apollo and Autoware. Apollo Dreamland is Baidu's web-based simulation platform built on top of the Apollo ADS stack.4.1  Platform OverviewMaintainerLG Electronics (LGSVL) + Baidu (Apollo Dreamland)EngineUnity (LGSVL) — High Definition Render Pipeline (HDRP)LicenseApache 2.0 (LGSVL); Baidu Apollo license (Dreamland)Primary UseFull ADS stack testing (Apollo/Autoware integration), HIL/SIL/MIL, sensor simulationScenario TypesTwo fundamental types: WorldSim (synthetic) and LogSim (log-replay from real sensors)Scenario Count~200 pre-built scenario cases in Apollo Dreamland; unlimited via Python API scriptingSensor SuiteRGB camera, fisheye camera, LiDAR, RADAR, ultrasonic, depth camera, semantic segmentation, ground truth 3D bounding boxes, IMU, GPSMap SupportApollo HD Map 5.0, Lanelet2, OpenDRIVE 1.4 (import and export)ADS InterfacesApollo (CyberRT), Autoware (ROS/ROS2); custom bridges via pluginEvaluation Metrics12 automatic grading metrics: traffic safety, road safety, rider comfort, traffic complianceCloud SupportDreamland supports parallel cloud execution of millions of simulation miles per day4.2  Two Fundamental Scenario TypesWorldSim — Synthetic ScenariosWorldSim scenarios are manually created with fully specified and deterministic obstacle behavior and traffic light state. They are designed to test specific, well-defined ADS behaviors in a controlled environment. Each WorldSim scenario specifies: road geometry, obstacle types and trajectories, traffic light phase sequences, and ego start/end conditions.Strengths: Completely reproducible; obstacle behavior is exactly as specified; easy to create targeted regression tests. Weaknesses: Lack the complexity and unpredictability of real-world traffic.LogSim — Log-Based ScenariosLogSim scenarios replay real-world sensor data collected from Baidu's Apollo test vehicles. The sensor data (camera, LiDAR, radar) is replayed into the ADS stack exactly as it was recorded. Obstacles are perceived from the real sensor data, so perception results are realistic but non-deterministic.Strengths: Captures genuine real-world complexity including partial occlusions, sensor noise, and unusual traffic behaviors. Weaknesses: Cannot change obstacle behavior; harder to create targeted tests; perceived obstacles may be fuzzy or missed.4.3  Scenario Categories in Apollo Dreamland#Scenario NameDescription & Differentiating Factor1Intersection w/ traffic lightEgo navigates a signalized intersection. Differentiated by: phase state at ego arrival, conflicting traffic on cross-street.2Stop sign intersectionEgo stops at stop sign, waits for clear gap, proceeds. Differentiated from signalized: no timing guarantee, must judge gap independently.3U-turn laneEgo performs a U-turn in a dedicated turn lane. Differentiated by: oncoming traffic density, lane width.4Through lane (straight)Ego drives straight through intersection or along arterial. Baseline scenario used to verify basic lane keeping and signal compliance.5T-junctionThree-way intersection. Ego turns left or right into main road. Differentiated from 4-way: only two approach directions for crossing traffic.6Curved laneEgo navigates a significant road curve. Differentiated by: curvature radius, bank angle, presence of opposing traffic.7Pedestrian crossingPedestrian crosses at a marked crossing, with or without signal. Differentiated by: pedestrian speed, timing relative to ego, signal state.8Motor vehicle obstacleStopped or slow motor vehicle in ego's path. Differentiated from pedestrian: larger object, different stopping distance requirement.9Bicycle obstacleCyclist in or crossing ego's path. Differentiated: smaller than motor vehicle, less predictable trajectory, often in bike lane edge cases.10Narrow road passageRoad narrows, requiring careful lateral positioning or yielding to oncoming vehicles. Differentiated by: which direction has priority, width of gap.11Bare intersectionUnsignalized, unmarked intersection. Ego must infer right-of-way from road geometry alone. Tests rule-based inference in ambiguous situations.12Pull-over maneuverEgo must pull over to the side of the road on instruction. Tests precise lateral control and situational awareness of road shoulder.4.4  Dimensions of DifferentiationDimensionHow Scenarios DifferWorldSim vs LogSimThe most fundamental split. WorldSim is deterministic and targeted; LogSim is realistic but fixed. No mid-ground is possible within a single scenario.Road typeIntersection, U-turn lane, T-junction, curved lane, through lane, narrow road. Defines the spatial challenge.Obstacle typePedestrian, bicycle, motor vehicle. Each has different size, speed, trajectory predictability, and legal status.Traffic control stateSignal phase, stop sign, bare intersection. Determines how right-of-way is established.Sensor configurationLGSVL allows full sensor suite customization per scenario. Same behavior scenario with different sensors (e.g., camera-only vs LiDAR+camera) is effectively a different test.ADS stack under testSame scenario with Apollo vs Autoware produces different results due to algorithm differences. The scenario itself is the same; the SUT changes.5. Eclipse SUMO (Simulation of Urban MObility)SUMO is an open-source, microscopic, continuous, multi-modal traffic simulation package developed by the German Aerospace Center (DLR). Unlike the other platforms, SUMO is a traffic flow simulator rather than an AV testing simulator — it models individual vehicle behavior based on car-following and lane-changing models. However, it is widely used for AV testing via its TraCI (Traffic Control Interface) API and co-simulation with CARLA.5.1  Platform OverviewMaintainerGerman Aerospace Center (DLR) + Eclipse Foundation communityLicenseEclipse Public License v2.0 (EPL-2.0)Primary UseTraffic flow simulation, V2X research, AV platoon testing, signal optimization, co-simulationSimulation ModelMicroscopic — every vehicle individually modeled with car-following (IDM, Krauss, etc.) and lane-change (LC2013, SL2015) modelsScenario TypeParametric network + demand — scenarios defined by road network + vehicle demand; no pre-built named scenario libraryNetwork SourcesOpenStreetMap import, synthetic random networks, manual NETEDIT constructionObject TypesCars, trucks, buses, trams, trains, bicycles, pedestrians, motorcyclesStandardsOpenDRIVE export, GTFS import (public transport), OSM importKey APIsTraCI (Python/C++/Java real-time control), libsumo (embedded), SUMO-GUI, neteditKey IntegrationsCARLA co-simulation, NS2/NS3 (V2X), OMNET++, VISSIM import, Flow frameworkCo-simulationSUMO handles traffic flow; CARLA handles sensor rendering. Tasks split between simulators.5.2  How Scenarios Are DefinedSUMO does not have a library of pre-defined named scenarios. Instead, a scenario is composed from:Network file (.net.xml): road geometry, junctions, traffic lights, lane connectionsRoute file (.rou.xml): vehicle types, departure times, routes or OD demandsAdditional file (.add.xml): detectors, signal programs, parking areas, public transport stopsConfiguration file (.sumocfg): ties all inputs together with simulation parametersScenario complexity emerges from the interaction of these inputs. A simple intersection + high vehicle demand = congestion scenario. The same intersection + low demand + a single pedestrian = yielding scenario. Scenarios are defined by parameters, not by scripted agent behaviors.5.3  Scenario Types#Scenario NameDescription & Differentiating Factor1Signalized intersectionJunction with traffic lights controlling flow. Differentiated by: phase timing, number of approaches, protected vs permissive turns.2Unsignalized intersectionJunction with yield/priority rules only. Differentiated by: who has priority (main road vs side road), traffic density on each approach.3RoundaboutCircular junction. Differentiated by: number of entry/exit lanes, circulating traffic density, entry speed.4Highway (motorway)Multi-lane high-speed road. Differentiated by: lane count, speed limit, on-ramp merges, truck/car ratio.5Urban gridCity block network from OpenStreetMap import. Differentiated by: network density, signal coordination plans, pedestrian crossing demand.6On-ramp mergeVehicle enters main road from acceleration lane. Differentiated by: merge lane length, main road speed, gap acceptance model parameters.7Bus/tram corridorPublic transport running in mixed or dedicated lanes. Differentiated by: headway, stop placement, interaction with general traffic.8Pedestrian crossingPedestrian-triggered or scheduled crossings. Differentiated by: pedestrian demand rate, crossing speed distribution, signal priority.9Parking generationVehicles searching for and occupying parking spaces. Differentiated by: supply/demand ratio, search radius, parking time distribution.10Emergency vehicle responseEmergency vehicle moves through network with priority signal preemption. Differentiated by: preemption strategy, network congestion level.11AV platoonVehicles traveling in coordinated close-following formation. Differentiated by: platoon size, headway, penetration rate of connected vehicles.12V2X cooperative scenarioVehicles exchange information via V2X comms. Differentiated by: penetration rate, communication range, use case (green wave, hazard warning, cooperative merge).5.4  Dimensions of DifferentiationDimensionHow Scenarios DifferNetwork topologyGrid, arterial, freeway, mixed urban network. Imported from OSM or built manually. Topology determines which traffic phenomena can emerge.Traffic demandVehicle count per hour per lane. Low demand = free-flow; moderate = stable queue; high = breakdown/congestion. Can be from OD matrices, random trips, or real counts.Vehicle type mixRatio of cars, trucks, buses, bicycles, pedestrians. Heavy vehicles change capacity; mixed modes create complex interactions.Car-following modelKrauss (default), IDM, Wiedemann, CACC. Changes how vehicles maintain headway. CACC enables platoon simulation.Lane-change modelLC2013 (default), SL2015 (strategic). Different aggressiveness and cooperative behavior.Signal planFixed timing, actuated, adaptive (via TraCI). Signal plan change with same demand produces different congestion patterns.V2X penetration rateFraction of vehicles with communication capability. Enables cooperative scenarios (green wave, hazard warning, cooperative merge).AV penetration rateFraction of vehicles under SUMO control vs TraCI control (external AV algorithm). Used to study mixed autonomy traffic effects.6. Microsoft AirSimAirSim is a simulation platform developed by Microsoft Research, built as a plugin for Unreal Engine (with experimental Unity support). Originally designed for drone simulation, it was extended to ground vehicles and became widely used for autonomous driving research, especially for end-to-end deep learning and computer vision. As of 2022, Microsoft has archived the original AirSim and is redirecting efforts to Project AirSim (ae